pylancelot-0.6.3.dist-info/METADATA,sha256=2xTE8fBIbtd79ohma3tKs8l2PfjSFhA2qq-TA5NOz0I,509
pylancelot-0.6.3.dist-info/WHEEL,sha256=MT3DwHY5NKmzjNPpPbf0eXsp-b7ApWmdqZ12k72Nobo,105
lancelot.cpython-36m-darwin.so,sha256=a98rO8HzB4NLquun68y9sKO1R-zD9pjYueJT1CZ37TQ,2126760
pylancelot-0.6.3.dist-info/RECORD,,
