rtfcre-2.0.0_dev2.dist-info/METADATA,sha256=BVCyAu8VItkxA8BKeRlwhd1gaAkiQl70XmFfvyn9DT0,3820
rtfcre-2.0.0_dev2.dist-info/WHEEL,sha256=MT3DwHY5NKmzjNPpPbf0eXsp-b7ApWmdqZ12k72Nobo,105
rtfcre.cpython-36m-darwin.so,sha256=jwrhTkAn9GMjcxBX3SAQPXQBd9Lk5VHX558srQJKYq4,2137504
rtfcre-2.0.0_dev2.dist-info/RECORD,,
