rtea-0.3.2.dist-info/METADATA,sha256=61XOtS_iiSqjQUpa8KPWDeA7XJtV4jYGOeDnfsRwX4Q,2001
rtea-0.3.2.dist-info/WHEEL,sha256=MT3DwHY5NKmzjNPpPbf0eXsp-b7ApWmdqZ12k72Nobo,105
rtea/__init__.pyi,sha256=DJV06M8wYbONOPashd4aNn3t0kAbnxY1sm-hlyfJk1k,256
rtea/_pytea.pyi,sha256=rMoi7KGPqvnzpytrLxjvA6utyQ0zvpHQ_5Gfz27jnKo,286
rtea/__init__.py,sha256=2ucLCqgjRtWYzMvkK8rZRIE1-uI0bu0kjvdXWZL9lNo,359
rtea/_pytea.py,sha256=ZekrPz8q1AmZKkGQ7nepY32tmqcqIaj1jUn45r_SRKc,1944
rtea/py.typed,sha256=47DEQpj8HBSa-_TImW-5JCeuQeRkm5NMpJWZG3hSuFU,0
rtea/rtea.cpython-36m-darwin.so,sha256=_lEaBv8nRuV7rT0EW_ELg7Ee-c-4F9vju2_1Qd2KPKI,302376
rtea-0.3.2.dist-info/RECORD,,
