rtfcre-2.0.0_dev3.dist-info/METADATA,sha256=zjqJYyeqcCMH1QTB1fUIhj3YtBV3lwwCMeB6YDQiLFE,3820
rtfcre-2.0.0_dev3.dist-info/WHEEL,sha256=MT3DwHY5NKmzjNPpPbf0eXsp-b7ApWmdqZ12k72Nobo,105
rtfcre.cpython-36m-darwin.so,sha256=leFs7QoL05E_PcEdrx92eGSXDt-uMMfrBe71ZFaI9V0,2137528
rtfcre-2.0.0_dev3.dist-info/RECORD,,
