rtfcre-2.0.0_dev1.dist-info/METADATA,sha256=PMuzVCmJOZzjFucU-1yGftiRBmHgAaQKXMky8PKCgv0,3820
rtfcre-2.0.0_dev1.dist-info/WHEEL,sha256=MT3DwHY5NKmzjNPpPbf0eXsp-b7ApWmdqZ12k72Nobo,105
rtfcre.cpython-36m-darwin.so,sha256=ARqiEM3EZGsjrCe9WEYbGieVXrQYujReNSgpYd1nxJY,2137192
rtfcre-2.0.0_dev1.dist-info/RECORD,,
