pylancelot-0.6.2.dist-info/METADATA,sha256=H7v7cAhwGGJz0NIFwgZXnV-MpYPZsmsONHFDbEhEOzc,509
pylancelot-0.6.2.dist-info/WHEEL,sha256=MT3DwHY5NKmzjNPpPbf0eXsp-b7ApWmdqZ12k72Nobo,105
lancelot.cpython-36m-darwin.so,sha256=6Mx83wNLc1nHD4ALuF9JiwjxchYKskHPRSAbo0KmeyU,2126760
pylancelot-0.6.2.dist-info/RECORD,,
