python_flirt-0.6.2.dist-info/METADATA,sha256=pc7CYTYgqxKtv6XRL9iQ120HwR8LCiiS3zo008kFWSo,513
python_flirt-0.6.2.dist-info/WHEEL,sha256=MT3DwHY5NKmzjNPpPbf0eXsp-b7ApWmdqZ12k72Nobo,105
flirt.cpython-36m-darwin.so,sha256=NmfJG9or-wXirQwUmWON_rMp63Rfm6AxVB9lfhHHuEI,517640
python_flirt-0.6.2.dist-info/RECORD,,
