python_flirt-0.6.3.dist-info/METADATA,sha256=ejG2THkAu4s7gPG6_hdgUsCCwyH-coFXSZPD8cW8d4M,513
python_flirt-0.6.3.dist-info/WHEEL,sha256=MT3DwHY5NKmzjNPpPbf0eXsp-b7ApWmdqZ12k72Nobo,105
flirt.cpython-36m-darwin.so,sha256=VoxHUG93oqaBT-mDFO0kgehONFE1ZnKXfpZg1XOtp1s,517640
python_flirt-0.6.3.dist-info/RECORD,,
