reasonable-0.1.40.dist-info/METADATA,sha256=7aX-kLJI8zPG_4Mv9huMYhKUDrzQ3fll4r7J0SA0e40,5469
reasonable-0.1.40.dist-info/WHEEL,sha256=MT3DwHY5NKmzjNPpPbf0eXsp-b7ApWmdqZ12k72Nobo,105
reasonable/__init__.py,sha256=YyRONZWUWeFhurHJ2d63tz-OU4opCQ3Et3Jthb7c4SU,84
reasonable/reasonable.cpython-36m-darwin.so,sha256=b94mZSJrIyPx2Fn7xJGu8Nlqv3zlGur8obm1z-9mIek,980192
reasonable-0.1.40.dist-info/RECORD,,
