reasonable-0.1.43.dist-info/METADATA,sha256=8rWMqAFwp_rHateACqv99Krya-OHuA3uxaQ9OkNB5VU,5469
reasonable-0.1.43.dist-info/WHEEL,sha256=MT3DwHY5NKmzjNPpPbf0eXsp-b7ApWmdqZ12k72Nobo,105
reasonable/__init__.py,sha256=YyRONZWUWeFhurHJ2d63tz-OU4opCQ3Et3Jthb7c4SU,84
reasonable/reasonable.cpython-36m-darwin.so,sha256=g_msZPSuqsmfk1V7BHjA5wMT6vmoxqzt3h99vnCfs50,980184
reasonable-0.1.43.dist-info/RECORD,,
