ahocorasick_rs-0.9.0.dist-info/METADATA,sha256=JJPgJBIXGAR-KPERJsNOpQwTJS8uJxKdt0R_oKSXTzk,5525
ahocorasick_rs-0.9.0.dist-info/WHEEL,sha256=MT3DwHY5NKmzjNPpPbf0eXsp-b7ApWmdqZ12k72Nobo,105
ahocorasick_rs.cpython-36m-darwin.so,sha256=9L0N-DDyAscq1CrjjwNjwxDJldNUukZTXeVpkNqJNd0,671384
ahocorasick_rs-0.9.0.dist-info/RECORD,,
