trattoria_core-0.1.0.dist-info/METADATA,sha256=O47qEkHlJuC5FaxdNKfII09MXnazEYru8WG5b9pdWQQ,450
trattoria_core-0.1.0.dist-info/WHEEL,sha256=MT3DwHY5NKmzjNPpPbf0eXsp-b7ApWmdqZ12k72Nobo,105
trattoria_core.cpython-36m-darwin.so,sha256=xDtQ84uyRLmQut4MkGRMuzotGqumjIJB7waxOGHFSW0,436760
trattoria_core-0.1.0.dist-info/RECORD,,
